<NUMBER OF ZONES> 2
<TOTAL OD FLOW>  1
<END OF METADATA>

Origin 1 
    2 :     1.0;  